0,   100.00, 33, 0, 0, 60.00     / PSS(R)E 33 RAW created by rawd33  THU, JUN 25 2020   9:35
THIS IS A SYNTHETIC POWER SYSTEM MODEL THAT DOES NOT REPRESE
DATA RESEARCH PROJECT AND CONTAINS NO CEII.
  1001,'ODESSA 2 0  ', 115.0000,1,   1,   9,   1,0.99790, -22.7040,1.10000,0.90000,1.10000,0.90000
  1002,'PRESIDIO 2 0', 115.0000,1,   1,   9,   1,1.06320, -34.3473,1.10000,0.90000,1.10000,0.90000
  1003,'O DONNELL ~1', 115.0000,1,   1,   9,   1,1.09286,   3.8179,1.10000,0.90000,1.10000,0.90000
  1004,'O DONNELL ~2', 230.0000,2,   1,   9,   1,1.08796,   6.1161,1.10000,0.90000,1.10000,0.90000
  1005,'BIG SPRING~8', 115.0000,1,   1,   9,   1,1.03033, -15.5353,1.10000,0.90000,1.10000,0.90000
  1006,'BIG SPRING~9',  13.8000,2,   1,   9,   1,1.04120, -14.6428,1.10000,0.90000,1.10000,0.90000
  1007,'VAN HORN 0  ', 115.0000,1,   1,   9,   1,1.08326, -34.0062,1.10000,0.90000,1.10000,0.90000
  1008,'IRAAN 2 0   ', 115.0000,1,   1,   9,   1,1.10328,  -8.3109,1.10000,0.90000,1.10000,0.90000
  1009,'IRAAN 2 1   ',  13.8000,2,   1,   9,   1,1.09886,  -7.0420,1.10000,0.90000,1.10000,0.90000
  1010,'PRESIDIO 1 0', 115.0000,1,   1,   9,   1,1.08126, -32.2436,1.10000,0.90000,1.10000,0.90000
  1011,'PRESIDIO 1 1',  22.0000,2,   1,   9,   1,1.08126, -32.2436,1.10000,0.90000,1.10000,0.90000
  1012,'SANDERSON 0 ', 115.0000,1,   1,   9,   1,1.08791,  -9.9331,1.10000,0.90000,1.10000,0.90000
  1013,'MONAHANS 2 0', 115.0000,1,   1,   9,   1,1.01939, -27.1535,1.10000,0.90000,1.10000,0.90000
  1014,'GRANDFALLS 0', 115.0000,1,   1,   9,   1,1.05038, -20.1375,1.10000,0.90000,1.10000,0.90000
  1015,'MARFA 0     ', 115.0000,1,   1,   9,   1,1.07846, -34.3023,1.10000,0.90000,1.10000,0.90000
  1016,'GARDEN CIT~1', 115.0000,2,   1,   9,   1,1.08839, -13.3754,1.10000,0.90000,1.10000,0.90000
  1017,'ODESSA 4 0  ', 115.0000,1,   1,   9,   1,0.93459, -30.8303,1.10000,0.90000,1.10000,0.90000
  1018,'NOTREES 0   ', 115.0000,1,   1,   9,   1,0.90840, -33.6361,1.10000,0.90000,1.10000,0.90000
  1019,'MIDLAND 4 0 ', 115.0000,1,   1,   9,   1,1.00149, -22.4260,1.10000,0.90000,1.10000,0.90000
  1020,'BIG SPRING~1', 115.0000,1,   1,   9,   1,1.03464, -10.4389,1.10000,0.90000,1.10000,0.90000
  1021,'BIG SPRING~2',  13.8000,2,   1,   9,   1,1.02555,  -7.5534,1.10000,0.90000,1.10000,0.90000
  1022,'O DONNELL ~3', 115.0000,1,   1,   9,   1,1.09435,   4.7134,1.10000,0.90000,1.10000,0.90000
  1023,'O DONNELL ~4',  13.8000,2,   1,   9,   1,1.09994,   8.1224,1.10000,0.90000,1.10000,0.90000
  1024,'ODESSA 6 0  ', 115.0000,1,   1,   9,   1,0.89754, -36.1265,1.10000,0.90000,1.10000,0.90000
  1025,'BIG SPRIN~14', 115.0000,1,   1,   9,   1,1.03999, -11.4671,1.10000,0.90000,1.10000,0.90000
  1026,'BIG SPRIN~15',  13.8000,2,   1,   9,   1,1.08337,  -7.6455,1.10000,0.90000,1.10000,0.90000
  1027,'MIDLAND 2 0 ', 115.0000,1,   1,   9,   1,0.96931, -29.1452,1.10000,0.90000,1.10000,0.90000
  1028,'COAHOMA 0   ', 115.0000,1,   1,   9,   1,1.08965,   5.4073,1.10000,0.90000,1.10000,0.90000
  1029,'MIDLAND 3 0 ', 115.0000,1,   1,   9,   1,0.88181, -38.0003,1.10000,0.90000,1.10000,0.90000
  1030,'ALPINE 0    ', 115.0000,1,   1,   9,   1,1.06047, -23.0562,1.10000,0.90000,1.10000,0.90000
  1031,'FORT DAVIS 0', 115.0000,1,   1,   9,   1,1.04888, -31.3999,1.10000,0.90000,1.10000,0.90000
  1032,'MCCAMEY 1 0 ', 115.0000,1,   1,   9,   1,1.09497, -11.9882,1.10000,0.90000,1.10000,0.90000
  1033,'MCCAMEY 1 1 ', 230.0000,2,   1,   9,   1,1.09998, -12.0788,1.10000,0.90000,1.10000,0.90000
  1034,'BIG SPRING~6', 115.0000,1,   1,   9,   1,1.05591, -15.6590,1.10000,0.90000,1.10000,0.90000
  1035,'BIG SPRING~7',  13.8000,2,   1,   9,   1,1.07209, -14.3856,1.10000,0.90000,1.10000,0.90000
  1036,'CRANE 0     ', 115.0000,2,   1,   9,   1,1.09842, -13.7781,1.10000,0.90000,1.10000,0.90000
  1037,'ODESSA 5 0  ', 115.0000,1,   1,   9,   1,0.94528, -29.0165,1.10000,0.90000,1.10000,0.90000
  1038,'FORT STOCK~1', 115.0000,1,   1,   9,   1,1.08413, -13.5597,1.10000,0.90000,1.10000,0.90000
  1039,'FORT STOCK~2',  22.0000,2,   1,   9,   1,1.09996, -11.5085,1.10000,0.90000,1.10000,0.90000
  1040,'ANDREWS 0   ', 115.0000,1,   1,   9,   1,0.93119, -31.6557,1.10000,0.90000,1.10000,0.90000
  1041,'FORSAN 0    ', 115.0000,2,   1,   9,   1,1.03675, -17.5104,1.10000,0.90000,1.10000,0.90000
  1042,'FORSAN 1    ',  13.8000,2,   1,   9,   1,1.03675, -17.5104,1.10000,0.90000,1.10000,0.90000
  1043,'FORSAN 2    ',  13.8000,2,   1,   9,   1,1.05232, -16.1815,1.10000,0.90000,1.10000,0.90000
  1044,'BIG LAKE 0  ', 115.0000,2,   1,   9,   1,1.05048,  -4.7081,1.10000,0.90000,1.10000,0.90000
  1045,'MIDLAND 5 0 ', 115.0000,1,   1,   9,   1,0.96083, -26.5390,1.10000,0.90000,1.10000,0.90000
  1046,'OZONA 0     ', 115.0000,1,   1,   9,   1,1.07582,  -9.1768,1.10000,0.90000,1.10000,0.90000
  1047,'MONAHANS 1 0', 115.0000,1,   1,   9,   1,1.04300, -22.1380,1.10000,0.90000,1.10000,0.90000
  1048,'MONAHANS 1 1',  18.0000,2,   1,   9,   1,1.04300, -22.1380,1.10000,0.90000,1.10000,0.90000
  1049,'MONAHANS 1 2',  18.0000,2,   1,   9,   1,1.04300, -22.1380,1.10000,0.90000,1.10000,0.90000
  1050,'MONAHANS 1 3',  18.0000,2,   1,   9,   1,1.08418, -17.7028,1.10000,0.90000,1.10000,0.90000
  1051,'MONAHANS 1 4',  18.0000,2,   1,   9,   1,1.09581, -16.5069,1.10000,0.90000,1.10000,0.90000
  1052,'MONAHANS 1 5',  18.0000,2,   1,   9,   1,1.07874, -18.4604,1.10000,0.90000,1.10000,0.90000
  1053,'MONAHANS 1 6', 230.0000,2,   1,   9,   1,1.07397, -16.0925,1.10000,0.90000,1.10000,0.90000
  1054,'STANTON 0   ', 115.0000,1,   1,   9,   1,0.97922, -19.8872,1.10000,0.90000,1.10000,0.90000
  1055,'ODONNELL 0  ', 115.0000,1,   1,   9,   1,1.08232,   1.2707,1.10000,0.90000,1.10000,0.90000
  1056,'LENORAH 0   ', 115.0000,1,   1,   9,   1,0.98762, -24.5223,1.10000,0.90000,1.10000,0.90000
  1057,'LENORAH 1   ',  18.0000,2,   1,   9,   1,0.98762, -24.5223,1.10000,0.90000,1.10000,0.90000
  1058,'IRAAN 3 0   ', 115.0000,1,   1,   9,   1,1.09800,  -8.2755,1.10000,0.90000,1.10000,0.90000
  1059,'IRAAN 3 1   ',  22.0000,2,   1,   9,   1,1.09800,  -8.2755,1.10000,0.90000,1.10000,0.90000
  1060,'IRAAN 3 2   ',  22.0000,2,   1,   9,   1,1.09800,  -8.2755,1.10000,0.90000,1.10000,0.90000
  1061,'BIG SPRIN~10', 115.0000,1,   1,   9,   1,1.02195, -15.8760,1.10000,0.90000,1.10000,0.90000
  1062,'BIG SPRIN~11',  13.8000,2,   1,   9,   1,1.02195, -15.8760,1.10000,0.90000,1.10000,0.90000
  1063,'BIG SPRIN~12',  13.8000,2,   1,   9,   1,1.02195, -15.8760,1.10000,0.90000,1.10000,0.90000
  1064,'ODESSA 3 0  ', 115.0000,1,   1,   9,   1,0.97211, -25.6007,1.10000,0.90000,1.10000,0.90000
  1065,'BIG SPRING~4', 115.0000,1,   1,   9,   1,1.03530, -18.0464,1.10000,0.90000,1.10000,0.90000
  1066,'BIG SPRING~5',  13.8000,2,   1,   9,   1,1.07107, -15.0417,1.10000,0.90000,1.10000,0.90000
  1067,'BIG SPRIN~13', 115.0000,1,   1,   9,   1,1.03157, -17.3919,1.10000,0.90000,1.10000,0.90000
  1068,'MIDLAND 1 0 ', 115.0000,1,   1,   9,   1,1.03485, -19.7512,1.10000,0.90000,1.10000,0.90000
  1069,'IRAAN 1 0   ', 115.0000,2,   1,   9,   1,1.10277,  -7.6563,1.10000,0.90000,1.10000,0.90000
  1070,'IRAAN 1 1   ',  13.8000,2,   1,   9,   1,1.09929,  -5.8409,1.10000,0.90000,1.10000,0.90000
  1071,'ODESSA 1 0  ', 115.0000,1,   1,   9,   1,1.02387, -20.1209,1.10000,0.90000,1.10000,0.90000
  1072,'ODESSA 1 1  ',  18.0000,2,   1,   9,   1,1.09999, -13.4397,1.10000,0.90000,1.10000,0.90000
  1073,'ODESSA 1 2  ',  18.0000,2,   1,   9,   1,1.09999,  -8.7840,1.10000,0.90000,1.10000,0.90000
  1074,'ODESSA 1 3  ',  18.0000,2,   1,   9,   1,1.09999, -11.2892,1.10000,0.90000,1.10000,0.90000
  1075,'ODESSA 1 4  ',  18.0000,2,   1,   9,   1,1.09999, -10.5123,1.10000,0.90000,1.10000,0.90000
  1076,'ODESSA 1 5  ',  18.0000,2,   1,   9,   1,1.02387, -20.1209,1.10000,0.90000,1.10000,0.90000
  1077,'ODESSA 1 6  ',  18.0000,2,   1,   9,   1,1.02387, -20.1209,1.10000,0.90000,1.10000,0.90000
  1078,'ODESSA 1 7  ',  18.0000,2,   1,   9,   1,1.09975, -10.9390,1.10000,0.90000,1.10000,0.90000
  1079,'ODESSA 1 8  ', 500.0000,2,   1,   9,   1,1.09198, -13.1590,1.10000,0.90000,1.10000,0.90000
  1080,'ODESSA 1 9  ',  18.0000,2,   1,   9,   1,1.09998, -13.2003,1.10000,0.90000,1.10000,0.90000
  1081,'ODESSA 1 10 ', 230.0000,2,   1,   9,   1,1.08893, -14.1633,1.10000,0.90000,1.10000,0.90000
  1082,'FORT STOCK~3', 115.0000,2,   1,   9,   1,1.09996, -10.8046,1.10000,0.90000,1.10000,0.90000
  1083,'FORT STOCK~4', 115.0000,1,   1,   9,   1,1.06059, -17.1842,1.10000,0.90000,1.10000,0.90000
  1084,'BIG SPRING~3', 115.0000,2,   1,   9,   1,1.02363, -12.8690,1.10000,0.90000,1.10000,0.90000
  1085,'KERMIT 0    ', 115.0000,1,   1,   9,   1,0.99648, -27.3798,1.10000,0.90000,1.10000,0.90000
  1086,'PECOS 0     ', 115.0000,1,   1,   9,   1,0.97232, -32.6552,1.10000,0.90000,1.10000,0.90000
  1087,'SHEFFIELD 0 ', 115.0000,1,   1,   9,   1,1.09300,  -8.8189,1.10000,0.90000,1.10000,0.90000
  1088,'MCCAMEY 2 0 ', 115.0000,2,   1,   9,   1,1.08553, -15.3826,1.10000,0.90000,1.10000,0.90000
  1089,'LAMESA 0    ', 115.0000,2,   1,   9,   1,1.07057,  -6.4403,1.10000,0.90000,1.10000,0.90000
  1090,'GOLDSMITH 0 ', 115.0000,2,   1,   9,   1,0.94822, -31.6856,1.10000,0.90000,1.10000,0.90000
  1091,'RALLS 2 0   ', 161.0000,1,   1,   9,   1,0.98480,  28.7085,1.10000,0.90000,1.10000,0.90000
  2001,'PARIS 3 0   ', 161.0000,1,   2,  11,   1,1.07648, -18.0816,1.10000,0.90000,1.10000,0.90000
  2002,'SAVOY 0     ', 500.0000,1,   2,  11,   1,1.07924, -17.4941,1.10000,0.90000,1.10000,0.90000
  2003,'SAVOY 1     ', 161.0000,1,   2,  11,   1,1.07626, -18.2902,1.10000,0.90000,1.10000,0.90000
  2004,'SAVOY 2     ',  13.8000,2,   2,  11,   1,1.07924, -17.4941,1.10000,0.90000,1.10000,0.90000
  2005,'SAVOY 3     ',  13.8000,2,   2,  11,   1,1.07924, -17.4941,1.10000,0.90000,1.10000,0.90000
  2006,'SAVOY 4     ',  13.8000,2,   2,  11,   1,1.07924, -17.4941,1.10000,0.90000,1.10000,0.90000
  2007,'HONEY GROV~1', 161.0000,1,   2,  11,   1,1.07756, -17.5583,1.10000,0.90000,1.10000,0.90000
  2008,'MEMPHIS 0   ', 161.0000,1,   2,  10,   1,1.04326,  32.4942,1.10000,0.90000,1.10000,0.90000
  2009,'IOWA PARK 0 ', 161.0000,1,   2,  11,   1,1.01705,   4.2728,1.10000,0.90000,1.10000,0.90000
  2010,'VERNON 2 0  ', 161.0000,2,   2,  10,   1,1.06785,  38.0325,1.10000,0.90000,1.10000,0.90000
  2011,'PANHANDLE ~2', 500.0000,2,   2,  10,   1,1.09153,   7.9004,1.10000,0.90000,1.10000,0.90000
  2012,'PANHANDLE ~3', 161.0000,2,   2,  10,   1,1.07672,  13.3136,1.10000,0.90000,1.10000,0.90000
  2013,'PANHANDLE ~4',  18.0000,2,   2,  10,   1,1.08394,   8.9195,1.10000,0.90000,1.10000,0.90000
  2014,'CHILDRESS 0 ', 161.0000,1,   2,  10,   1,1.04132,  43.5446,1.10000,0.90000,1.10000,0.90000
  2015,'FORESTBURG 0', 161.0000,1,   2,  11,   1,1.05622, -15.0563,1.10000,0.90000,1.10000,0.90000
  2016,'SHERMAN 3 0 ', 161.0000,1,   2,  11,   1,1.06447, -19.7190,1.10000,0.90000,1.10000,0.90000
  2017,'PANHANDLE ~7', 500.0000,1,   2,  10,   1,1.08867,   6.4604,1.10000,0.90000,1.10000,0.90000
  2018,'PANHANDLE ~8', 161.0000,1,   2,  10,   1,1.07756,   8.7038,1.10000,0.90000,1.10000,0.90000
  2019,'PANHANDLE ~9',  20.0000,2,   2,  10,   1,1.08867,   6.4604,1.10000,0.90000,1.10000,0.90000
  2020,'WICHITA F~12', 161.0000,1,   2,  11,   1,1.04813,  -5.9431,1.10000,0.90000,1.10000,0.90000
  2021,'PARIS 2 0   ', 500.0000,1,   2,  11,   1,1.08011, -16.5178,1.10000,0.90000,1.10000,0.90000
  2022,'PARIS 2 1   ', 161.0000,1,   2,  11,   1,1.07921, -17.4460,1.10000,0.90000,1.10000,0.90000
  2023,'PARIS 2 2   ',  13.8000,2,   2,  11,   1,1.07728, -16.0959,1.10000,0.90000,1.10000,0.90000
  2024,'PARIS 2 3   ',  13.8000,2,   2,  11,   1,1.07605, -15.9166,1.10000,0.90000,1.10000,0.90000
  2025,'WICHITA F~10', 161.0000,1,   2,  11,   1,1.05158,  -6.2658,1.10000,0.90000,1.10000,0.90000
  2026,'WHEELER 0   ', 161.0000,1,   2,  10,   1,1.08195,   9.6461,1.10000,0.90000,1.10000,0.90000
  2027,'DEPORT 0    ', 161.0000,1,   2,  11,   1,1.07749, -18.3055,1.10000,0.90000,1.10000,0.90000
  2028,'WICHITA FA~9', 161.0000,1,   2,  11,   1,1.03528,  -4.7782,1.10000,0.90000,1.10000,0.90000
  2029,'SILVERTON 0 ', 161.0000,2,   2,  10,   1,1.07327,  52.7624,1.10000,0.90000,1.10000,0.90000
  2030,'BONHAM 0    ', 161.0000,1,   2,  11,   1,1.06881, -19.0072,1.10000,0.90000,1.10000,0.90000
  2031,'MATADOR 0   ', 161.0000,1,   2,  10,   1,1.01805,  23.4560,1.10000,0.90000,1.10000,0.90000
  2032,'ARTHUR CIT~1', 161.0000,1,   2,  11,   1,1.07844, -17.3614,1.10000,0.90000,1.10000,0.90000
  2033,'LEONARD 0   ', 161.0000,1,   2,  11,   1,1.06236, -20.0667,1.10000,0.90000,1.10000,0.90000
  2034,'GORDONVILL~1', 161.0000,1,   2,  11,   1,1.06588, -19.6699,1.10000,0.90000,1.10000,0.90000
  2035,'KNOX CITY 0 ', 161.0000,2,   2,  10,   1,1.07493,  35.0045,1.10000,0.90000,1.10000,0.90000
  2036,'WICHITA F~13', 161.0000,1,   2,  11,   1,1.04314,  -4.4282,1.10000,0.90000,1.10000,0.90000
  2037,'LINDSAY 0   ', 161.0000,1,   2,  11,   1,1.05757, -15.1094,1.10000,0.90000,1.10000,0.90000
  2038,'ECTOR 0     ', 161.0000,1,   2,  11,   1,1.07446, -18.5907,1.10000,0.90000,1.10000,0.90000
  2039,'SUNSET 0    ', 161.0000,1,   2,  11,   1,1.05314, -14.4851,1.10000,0.90000,1.10000,0.90000
  2040,'CLARKSVILL~1', 161.0000,1,   2,  11,   1,1.08048, -17.7463,1.10000,0.90000,1.10000,0.90000
  2041,'PANHANDLE ~5', 161.0000,1,   2,  10,   1,1.08145,  14.3206,1.10000,0.90000,1.10000,0.90000
  2042,'PANHANDLE ~6',  18.0000,2,   2,  10,   1,1.08035,  15.4254,1.10000,0.90000,1.10000,0.90000
  2043,'SADLER 0    ', 161.0000,1,   2,  11,   1,1.06532, -19.7006,1.10000,0.90000,1.10000,0.90000
  2044,'WHITESBORO 0', 161.0000,1,   2,  11,   1,1.06411, -17.2620,1.10000,0.90000,1.10000,0.90000
  2045,'SHEPPARD A~1', 161.0000,1,   2,  11,   1,1.04540,  -5.7204,1.10000,0.90000,1.10000,0.90000
  2046,'POTTSBORO 0 ', 161.0000,1,   2,  11,   1,1.06648, -19.6138,1.10000,0.90000,1.10000,0.90000
  2047,'BELLS 0     ', 161.0000,1,   2,  11,   1,1.07465, -18.5353,1.10000,0.90000,1.10000,0.90000
  2048,'CROSBYTON 0 ', 161.0000,1,   2,  10,   1,1.01222,  28.3415,1.10000,0.90000,1.10000,0.90000
  2049,'ELECTRA 0   ', 161.0000,2,   2,  10,   1,1.06321,  28.7803,1.10000,0.90000,1.10000,0.90000
  2050,'PATTONVILL~1', 161.0000,1,   2,  11,   1,1.06851, -19.7997,1.10000,0.90000,1.10000,0.90000
  2051,'HENRIETTA 0 ', 161.0000,1,   2,  11,   1,1.04190,  -9.2392,1.10000,0.90000,1.10000,0.90000
  2052,'PANHANDLE~13', 161.0000,2,   2,  10,   1,1.07156,  23.8132,1.10000,0.90000,1.10000,0.90000
  2053,'BOWIE 0     ', 161.0000,1,   2,  11,   1,1.06143, -15.3487,1.10000,0.90000,1.10000,0.90000
  2054,'WICHITA FA~1', 500.0000,1,   2,  11,   1,1.06161,  -6.8364,1.10000,0.90000,1.10000,0.90000
  2055,'WICHITA FA~2', 161.0000,1,   2,  11,   1,1.05249,  -6.1768,1.10000,0.90000,1.10000,0.90000
  2056,'WICHITA FA~3',  18.0000,2,   2,  11,   1,1.06161,  -6.8364,1.10000,0.90000,1.10000,0.90000
  2057,'WICHITA FA~4',  18.0000,2,   2,  11,   1,1.07445,  -6.8495,1.10000,0.90000,1.10000,0.90000
  2058,'WHITE DEER 0', 161.0000,2,   2,  10,   1,1.08286,  14.6078,1.10000,0.90000,1.10000,0.90000
  2059,'WHITE DEER 1',  13.8000,2,   2,  10,   1,1.08423,  16.0246,1.10000,0.90000,1.10000,0.90000
  2060,'ROXTON 0    ', 161.0000,1,   2,  11,   1,1.06794, -19.2120,1.10000,0.90000,1.10000,0.90000
  2061,'VERNON 1 0  ', 161.0000,2,   2,  10,   1,1.06750,  35.9060,1.10000,0.90000,1.10000,0.90000
  2062,'VERNON 1 1  ',  18.0000,2,   2,  10,   1,1.06821,  38.3977,1.10000,0.90000,1.10000,0.90000
  2063,'DENISON 2 0 ', 161.0000,1,   2,  11,   1,1.06756, -19.4689,1.10000,0.90000,1.10000,0.90000
  2064,'SUMNER 0    ', 161.0000,1,   2,  11,   1,1.07376, -18.3061,1.10000,0.90000,1.10000,0.90000
  2065,'GAINESVILL~1', 161.0000,1,   2,  11,   1,1.05771, -16.5760,1.10000,0.90000,1.10000,0.90000
  2066,'ASPERMONT 0 ', 161.0000,1,   2,  10,   1,1.03804,  24.3298,1.10000,0.90000,1.10000,0.90000
  2067,'WICHITA F~11', 161.0000,1,   2,  11,   1,1.05144,  -6.2682,1.10000,0.90000,1.10000,0.90000
  2068,'WINDTHORST 0', 161.0000,2,   2,  11,   1,1.05698,  -5.4654,1.10000,0.90000,1.10000,0.90000
  2069,'HOWE 0      ', 161.0000,1,   2,  11,   1,1.06659, -19.3553,1.10000,0.90000,1.10000,0.90000
  2070,'ARCHER 2 0  ', 161.0000,1,   2,  11,   1,1.05905,  -6.0855,1.10000,0.90000,1.10000,0.90000
  2071,'ARCHER 2 1  ',  18.0000,2,   2,  11,   1,1.04989,  -4.5738,1.10000,0.90000,1.10000,0.90000
  2072,'COLLINSVIL~1', 161.0000,1,   2,  11,   1,1.07001, -18.8020,1.10000,0.90000,1.10000,0.90000
  2073,'JAYTON 0    ', 161.0000,1,   2,  10,   1,1.03349,  15.9192,1.10000,0.90000,1.10000,0.90000
  2074,'JAYTON 1    ', 115.0000,1,   2,  10,   1,1.04791,  13.7484,1.10000,0.90000,1.10000,0.90000
  2075,'JAYTON 2    ', 115.0000,1,   2,  10,   1,1.04791,  13.7484,1.10000,0.90000,1.10000,0.90000
  2076,'JAYTON 3    ',  24.0000,2,   2,  10,   1,1.03837,  16.3334,1.10000,0.90000,1.10000,0.90000
  2077,'MUENSTER 1 0', 161.0000,2,   2,  11,   1,1.05903, -13.2626,1.10000,0.90000,1.10000,0.90000
  2078,'MUENSTER 1 1',  13.8000,2,   2,  11,   1,1.05986, -11.8692,1.10000,0.90000,1.10000,0.90000
  2079,'PADUCAH 0   ', 161.0000,1,   2,  10,   1,1.04357,  34.0671,1.10000,0.90000,1.10000,0.90000
  2080,'NOCONA 0    ', 161.0000,1,   2,  11,   1,1.04865, -11.4363,1.10000,0.90000,1.10000,0.90000
  2081,'DODD CITY 0 ', 161.0000,1,   2,  11,   1,1.07081, -19.1177,1.10000,0.90000,1.10000,0.90000
  2082,'WICHITA FA~5', 161.0000,1,   2,  11,   1,1.03513,  -2.3868,1.10000,0.90000,1.10000,0.90000
  2083,'WICHITA FA~6',  20.0000,2,   2,  11,   1,1.04921,  -1.9546,1.10000,0.90000,1.10000,0.90000
  2084,'WICHITA FA~7',  20.0000,2,   2,  11,   1,1.03513,  -2.3868,1.10000,0.90000,1.10000,0.90000
  2085,'WICHITA FA~8',  20.0000,2,   2,  11,   1,1.03513,  -2.3868,1.10000,0.90000,1.10000,0.90000
  2086,'MONTAGUE 0  ', 161.0000,1,   2,  11,   1,1.05153, -13.3203,1.10000,0.90000,1.10000,0.90000
  2087,'SPUR 0      ', 161.0000,1,   2,  10,   1,1.02483,  19.3687,1.10000,0.90000,1.10000,0.90000
  2088,'ARCHER 1 0  ', 161.0000,1,   2,  11,   1,1.05757,  -5.6300,1.10000,0.90000,1.10000,0.90000
  2089,'ARCHER 1 1  ',  24.0000,2,   2,  11,   1,1.04947,  -4.1494,1.10000,0.90000,1.10000,0.90000
  2090,'ANNONA 0    ', 161.0000,1,   2,  11,   1,1.07769, -18.6434,1.10000,0.90000,1.10000,0.90000
  2091,'SEYMOUR 0   ', 161.0000,2,   2,  10,   1,1.07154,  39.6432,1.10000,0.90000,1.10000,0.90000
  2092,'DENISON 1 0 ', 161.0000,1,   2,  11,   1,1.07104, -19.0180,1.10000,0.90000,1.10000,0.90000
  2093,'PANHANDLE~10', 161.0000,1,   2,  10,   1,1.07683,  11.1414,1.10000,0.90000,1.10000,0.90000
  2094,'PANHANDLE~11',  13.8000,2,   2,  10,   1,1.07683,  11.1414,1.10000,0.90000,1.10000,0.90000
  2095,'PANHANDLE~12',  13.8000,2,   2,  10,   1,1.07683,  11.1414,1.10000,0.90000,1.10000,0.90000
  2096,'RALLS 1 0   ', 500.0000,1,   2,  10,   1,1.07616,   8.9930,1.10000,0.90000,1.10000,0.90000
  2097,'RALLS 1 1   ', 230.0000,1,   2,  10,   1,1.07147,   9.3839,1.10000,0.90000,1.10000,0.90000
  2098,'RALLS 1 2   ', 161.0000,1,   2,  10,   1,0.98076,  25.4214,1.10000,0.90000,1.10000,0.90000
  2099,'RALLS 1 3   ',  18.0000,2,   2,  10,   1,1.07625,   9.0549,1.10000,0.90000,1.10000,0.90000
  2100,'RALLS 1 4   ',  18.0000,2,   2,  10,   1,1.07662,  10.1237,1.10000,0.90000,1.10000,0.90000
  2101,'SHERMAN 1 0 ', 500.0000,1,   2,  11,   1,1.07773, -17.6470,1.10000,0.90000,1.10000,0.90000
  2102,'SHERMAN 1 1 ', 161.0000,1,   2,  11,   1,1.07484, -17.9045,1.10000,0.90000,1.10000,0.90000
  2103,'SHERMAN 1 2 ',  20.0000,2,   2,  11,   1,1.07773, -17.6470,1.10000,0.90000,1.10000,0.90000
  2104,'SHERMAN 1 3 ',  20.0000,2,   2,  11,   1,1.07773, -17.6470,1.10000,0.90000,1.10000,0.90000
  2105,'SHERMAN 1 4 ',  20.0000,2,   2,  11,   1,1.07773, -17.6470,1.10000,0.90000,1.10000,0.90000
  2106,'WHITEWRIGH~1', 161.0000,1,   2,  11,   1,1.06270, -19.8596,1.10000,0.90000,1.10000,0.90000
  2107,'SHERMAN 2 0 ', 161.0000,1,   2,  11,   1,1.07321, -18.0941,1.10000,0.90000,1.10000,0.90000
  2108,'ROCHESTER 0 ', 161.0000,1,   2,  10,   1,1.08196,  -9.4068,1.10000,0.90000,1.10000,0.90000
  2109,'BURKBURNET~1', 161.0000,1,   2,  11,   1,1.02082,   0.4954,1.10000,0.90000,1.10000,0.90000
  2110,'MUENSTER 2 0', 161.0000,1,   2,  11,   1,1.05830, -14.0364,1.10000,0.90000,1.10000,0.90000
  2111,'ARCHER CIT~1', 161.0000,1,   2,  11,   1,1.08328, -11.9714,1.10000,0.90000,1.10000,0.90000
  2112,'PETROLIA 0  ', 161.0000,1,   2,  11,   1,1.03686,  -6.1626,1.10000,0.90000,1.10000,0.90000
  2113,'PARIS 1 0   ', 500.0000,1,   2,  11,   1,1.08004, -16.3987,1.10000,0.90000,1.10000,0.90000
  2114,'PARIS 1 1   ', 161.0000,1,   2,  11,   1,1.08041, -16.8034,1.10000,0.90000,1.10000,0.90000
  2115,'PARIS 1 2   ',  13.8000,2,   2,  11,   1,1.07291, -15.3377,1.10000,0.90000,1.10000,0.90000
  2116,'PARIS 1 3   ',  13.8000,2,   2,  11,   1,1.07631, -15.8488,1.10000,0.90000,1.10000,0.90000
  2117,'PARIS 1 4   ',  13.8000,2,   2,  11,   1,1.07150, -15.1732,1.10000,0.90000,1.10000,0.90000
  2118,'PARIS 1 5   ',  13.8000,2,   2,  11,   1,1.07063, -15.0388,1.10000,0.90000,1.10000,0.90000
  2119,'PARIS 1 6   ',  13.8000,2,   2,  11,   1,1.07549, -15.7287,1.10000,0.90000,1.10000,0.90000
  2120,'PARIS 1 7   ',  13.8000,2,   2,  11,   1,1.07105, -15.0914,1.10000,0.90000,1.10000,0.90000
  2121,'BAGWELL 0   ', 161.0000,1,   2,  11,   1,1.08018, -18.0753,1.10000,0.90000,1.10000,0.90000
  2122,'TELEPHONE 0 ', 161.0000,1,   2,  11,   1,1.07466, -18.0293,1.10000,0.90000,1.10000,0.90000
  2123,'PANHANDLE ~1', 161.0000,2,   2,  10,   1,1.08249,  14.6337,1.10000,0.90000,1.10000,0.90000
  2124,'VAN ALSTYN~1', 161.0000,1,   2,  11,   1,1.05801, -20.3419,1.10000,0.90000,1.10000,0.90000
  2125,'TIOGA 0     ', 161.0000,1,   2,  11,   1,1.06771, -18.5129,1.10000,0.90000,1.10000,0.90000
  2126,'VALLEY VIE~1', 161.0000,1,   2,  11,   1,1.05904, -17.5015,1.10000,0.90000,1.10000,0.90000
  2127,'MIAMI 0     ', 500.0000,2,   2,  10,   1,1.10000,   5.0882,1.10000,0.90000,1.10000,0.90000
  2128,'MIAMI 1     ', 161.0000,1,   2,  10,   1,1.08528,   7.4514,1.10000,0.90000,1.10000,0.90000
  2129,'TRENTON 0   ', 161.0000,1,   2,  11,   1,1.06386, -19.8183,1.10000,0.90000,1.10000,0.90000
  2130,'HASKELL 0   ', 161.0000,1,   2,  10,   1,1.08016,  -8.7405,1.10000,0.90000,1.10000,0.90000
  2131,'HASKELL 1   ', 115.0000,1,   2,  10,   1,1.07158,  -7.5478,1.10000,0.90000,1.10000,0.90000
  2132,'HASKELL 2   ', 115.0000,1,   2,  10,   1,1.06978,  -7.8587,1.10000,0.90000,1.10000,0.90000
  2133,'SAINT JO 0  ', 161.0000,1,   2,  11,   1,1.05718, -12.9111,1.10000,0.90000,1.10000,0.90000
  3001,'KERRVILLE 0 ', 230.0000,1,   3,  28,   1,1.07202, -17.6216,1.10000,0.90000,1.10000,0.90000
  3002,'KERRVILLE 1 ', 115.0000,1,   3,  28,   1,1.06828, -18.2281,1.10000,0.90000,1.10000,0.90000
  3003,'SWEETWATER~4', 115.0000,1,   3,  27,   1,1.08324,  -0.2554,1.10000,0.90000,1.10000,0.90000
  3004,'SWEETWATER~5',  18.0000,2,   3,  27,   1,1.08451,   0.3713,1.10000,0.90000,1.10000,0.90000
  3005,'LEAKEY 0    ', 115.0000,1,   3,  28,   1,1.05443, -17.7710,1.10000,0.90000,1.10000,0.90000
  3006,'HAMLIN 0    ', 115.0000,1,   3,  27,   1,1.06994,  -1.6166,1.10000,0.90000,1.10000,0.90000
  3007,'MERKEL 3 0  ', 115.0000,1,   3,  27,   1,1.07688,  -1.9832,1.10000,0.90000,1.10000,0.90000
  3008,'COLEMAN 0   ', 115.0000,1,   3,  27,   1,1.06565,  -5.1115,1.10000,0.90000,1.10000,0.90000
  3009,'SONORA 0    ', 115.0000,1,   3,  28,   1,1.07252,  -6.6368,1.10000,0.90000,1.10000,0.90000
  3010,'CAMP WOOD 0 ', 115.0000,1,   3,  28,   1,1.07834, -16.2589,1.10000,0.90000,1.10000,0.90000
  3011,'LLANO 0     ', 115.0000,1,   3,  28,   1,1.05359, -21.7330,1.10000,0.90000,1.10000,0.90000
  3012,'WILLOW CIT~1', 115.0000,1,   3,  28,   1,1.05030, -22.1316,1.10000,0.90000,1.10000,0.90000
  3013,'ABILENE 4 0 ', 115.0000,1,   3,  27,   1,1.07144,  -3.0965,1.10000,0.90000,1.10000,0.90000
  3014,'KINGSLAND 0 ', 115.0000,1,   3,  28,   1,1.06841, -19.4206,1.10000,0.90000,1.10000,0.90000
  3015,'ROSCOE 6 0  ', 115.0000,1,   3,  27,   1,1.08037,   1.8521,1.10000,0.90000,1.10000,0.90000
  3016,'BLACKWELL 0 ', 115.0000,1,   3,  27,   1,1.07904,  -1.5102,1.10000,0.90000,1.10000,0.90000
  3017,'BLACKWELL 1 ',  18.0000,2,   3,  27,   1,1.08311,   0.5410,1.10000,0.90000,1.10000,0.90000
  3018,'CHRISTOVAL 0', 230.0000,1,   3,  27,   1,1.07087,  -6.1921,1.10000,0.90000,1.10000,0.90000
  3019,'CHRISTOVAL 1', 115.0000,1,   3,  27,   1,1.06523,  -6.2351,1.10000,0.90000,1.10000,0.90000
  3020,'CHRISTOVAL 2',  13.8000,2,   3,  27,   1,1.06586,  -4.4509,1.10000,0.90000,1.10000,0.90000
  3021,'LUEDERS 0   ', 115.0000,1,   3,  27,   1,1.06787,  -5.8422,1.10000,0.90000,1.10000,0.90000
  3022,'COLORADO C~1', 115.0000,1,   3,  27,   1,1.06634,   5.6256,1.10000,0.90000,1.10000,0.90000
  3023,'STAMFORD 0  ', 115.0000,1,   3,  27,   1,1.06476,   1.2590,1.10000,0.90000,1.10000,0.90000
  3024,'ELDORADO 0  ', 115.0000,2,   3,  28,   1,1.06816,  -4.6494,1.10000,0.90000,1.10000,0.90000
  3025,'SAN SABA 0  ', 115.0000,1,   3,  28,   1,1.06251, -11.3491,1.10000,0.90000,1.10000,0.90000
  3026,'ABILENE 2 0 ', 230.0000,1,   3,  27,   1,1.07846,  -8.6581,1.10000,0.90000,1.10000,0.90000
  3027,'ABILENE 2 1 ', 115.0000,1,   3,  27,   1,1.06841,  -8.4731,1.10000,0.90000,1.10000,0.90000
  3028,'ABILENE 2 2 ',  18.0000,2,   3,  27,   1,1.07313,  -7.5671,1.10000,0.90000,1.10000,0.90000
  3029,'LOMETA 0    ', 115.0000,1,   3,  28,   1,1.07264, -18.2825,1.10000,0.90000,1.10000,0.90000
  3030,'SAN ANGELO~1', 115.0000,1,   3,  27,   1,1.05054,  -7.5352,1.10000,0.90000,1.10000,0.90000
  3031,'TUSCOLA 0   ', 115.0000,1,   3,  27,   1,1.07284,  -2.8342,1.10000,0.90000,1.10000,0.90000
  3032,'ABILENE 7 0 ', 115.0000,1,   3,  27,   1,1.07422,  -2.9561,1.10000,0.90000,1.10000,0.90000
  3033,'SNYDER 1 0  ', 115.0000,1,   3,  27,   1,1.08372,  10.7536,1.10000,0.90000,1.10000,0.90000
  3034,'SNYDER 1 1  ',  22.0000,2,   3,  27,   1,1.09686,  14.4112,1.10000,0.90000,1.10000,0.90000
  3035,'CHEROKEE 0  ', 115.0000,1,   3,  28,   1,1.06511,  -9.3284,1.10000,0.90000,1.10000,0.90000
  3036,'RICHLAND S~1', 115.0000,1,   3,  28,   1,1.06652,  -7.5773,1.10000,0.90000,1.10000,0.90000
  3037,'ROSCOE 2 0  ', 230.0000,1,   3,  27,   1,1.06876,  -0.4823,1.10000,0.90000,1.10000,0.90000
  3038,'ROSCOE 2 1  ', 115.0000,1,   3,  27,   1,1.06609,   3.4537,1.10000,0.90000,1.10000,0.90000
  3039,'ROSCOE 2 2  ',  13.8000,2,   3,  27,   1,1.07133,   0.6105,1.10000,0.90000,1.10000,0.90000
  3040,'BALLINGER 0 ', 115.0000,1,   3,  27,   1,1.06043,  -5.4377,1.10000,0.90000,1.10000,0.90000
  3041,'SILVER 0    ', 230.0000,1,   3,  27,   1,1.07375,  -7.6504,1.10000,0.90000,1.10000,0.90000
  3042,'SILVER 1    ', 115.0000,1,   3,  27,   1,1.05566,  -6.9961,1.10000,0.90000,1.10000,0.90000
  3043,'SILVER 2    ',  13.8000,2,   3,  27,   1,1.07375,  -7.6504,1.10000,0.90000,1.10000,0.90000
  3044,'SILVER 3    ',  13.8000,2,   3,  27,   1,1.07375,  -7.6504,1.10000,0.90000,1.10000,0.90000
  3045,'SILVER 4    ',  13.8000,2,   3,  27,   1,1.07375,  -7.6504,1.10000,0.90000,1.10000,0.90000
  3046,'ROSCOE 5 0  ', 230.0000,1,   3,  27,   1,1.07709,  -8.6585,1.10000,0.90000,1.10000,0.90000
  3047,'ROSCOE 5 1  ', 115.0000,1,   3,  27,   1,1.06938,  -2.0239,1.10000,0.90000,1.10000,0.90000
  3048,'ROSCOE 5 2  ', 500.0000,2,   3,  27,   1,1.09431, -12.2036,1.10000,0.90000,1.10000,0.90000
  3049,'ANSON 0     ', 115.0000,1,   3,  27,   1,1.06409,  -2.1300,1.10000,0.90000,1.10000,0.90000
  3050,'DEL RIO 0   ', 230.0000,2,   3,  28,   1,1.08667,  -8.9500,1.10000,0.90000,1.10000,0.90000
  3051,'DEL RIO 1   ', 115.0000,1,   3,  28,   1,1.07734, -10.7215,1.10000,0.90000,1.10000,0.90000
  3052,'HUNT 0      ', 115.0000,1,   3,  28,   1,1.06707, -17.9175,1.10000,0.90000,1.10000,0.90000
  3053,'WINGATE 0   ', 230.0000,1,   3,  27,   1,1.06814,  -5.6363,1.10000,0.90000,1.10000,0.90000
  3054,'WINGATE 1   ', 115.0000,1,   3,  27,   1,1.06697,  -3.7605,1.10000,0.90000,1.10000,0.90000
  3055,'WINGATE 2   ',  13.8000,2,   3,  27,   1,1.06199,  -4.3891,1.10000,0.90000,1.10000,0.90000
  3056,'WINGATE 3   ',  13.8000,2,   3,  27,   1,1.05290,  -3.2601,1.10000,0.90000,1.10000,0.90000
  3057,'WINGATE 4   ',  13.8000,2,   3,  27,   1,1.05393,  -3.3232,1.10000,0.90000,1.10000,0.90000
  3058,'STERLING C~1', 230.0000,1,   3,  27,   1,1.07054,  -6.4903,1.10000,0.90000,1.10000,0.90000
  3059,'STERLING C~2', 115.0000,1,   3,  27,   1,1.05001,  -8.1859,1.10000,0.90000,1.10000,0.90000
  3060,'STERLING C~3',  18.0000,2,   3,  27,   1,1.06264,  -3.2482,1.10000,0.90000,1.10000,0.90000
  3061,'STERLING C~4',  18.0000,2,   3,  27,   1,1.06043,  -4.1675,1.10000,0.90000,1.10000,0.90000
  3062,'STERLING C~5',  18.0000,2,   3,  27,   1,1.06659,  -5.3215,1.10000,0.90000,1.10000,0.90000
  3063,'STERLING C~6',  18.0000,2,   3,  27,   1,1.06630,  -4.8298,1.10000,0.90000,1.10000,0.90000
  3064,'ROSCOE 4 0  ', 115.0000,1,   3,  27,   1,1.07182,  -2.0139,1.10000,0.90000,1.10000,0.90000
  3065,'ROSCOE 4 1  ',  18.0000,2,   3,  27,   1,1.07146,   0.4235,1.10000,0.90000,1.10000,0.90000
  3066,'BRADY 0     ', 115.0000,2,   3,  28,   1,1.06820,  -6.1320,1.10000,0.90000,1.10000,0.90000
  3067,'TRENT 1 0   ', 115.0000,1,   3,  27,   1,1.08393,  -0.1551,1.10000,0.90000,1.10000,0.90000
  3068,'TRENT 1 1   ',  20.0000,2,   3,  27,   1,1.08520,   1.0421,1.10000,0.90000,1.10000,0.90000
  3069,'OVALO 0     ', 115.0000,1,   3,  27,   1,1.07206,  -3.5196,1.10000,0.90000,1.10000,0.90000
  3070,'NOLAN 0     ', 115.0000,1,   3,  27,   1,1.08571,  -0.7689,1.10000,0.90000,1.10000,0.90000
  3071,'NOLAN 1     ',  24.0000,2,   3,  27,   1,1.08822,   1.0079,1.10000,0.90000,1.10000,0.90000
  3072,'MILES 0     ', 115.0000,1,   3,  27,   1,1.05572,  -6.7246,1.10000,0.90000,1.10000,0.90000
  3073,'BRACKETTVI~3', 115.0000,1,   3,  28,   1,1.07935, -14.5158,1.10000,0.90000,1.10000,0.90000